Circuit: * C:\Users\DELL\OneDrive\Asztali gép\7. felev\Szakdolgozat\Rendszerezett kódok\All_codes\Varicap\szembeforditott_varicap.asc


Date: Fri Nov 10 15:26:23 2023
Total elapsed time: 0.046 seconds.

tnom = 27
temp = 27
method = trap
totiter = 2005
traniter = 0
tranpoints = 0
accept = 0
rejected = 0
matrix size = 3
fillins = 0
solver = Normal
Matrix Compiler1: 50 bytes object code size  0.0/0.0/[0.0]
Matrix Compiler2: 175 bytes object code size  0.0/0.0/[0.0]

