Circuit: *

Per .tran options, skipping operating point for transient analysis.

Date: Fri Nov 10 15:24:42 2023
Total elapsed time: 0.173 seconds.

tnom = 27
temp = 27
method = modified trap
totiter = 2103
traniter = 2103
tranpoints = 1052
accept = 1052
rejected = 0
matrix size = 3
fillins = 0
solver = Normal
Matrix Compiler1: off  [0.0]/0.0/0.0
Matrix Compiler2: off  [0.0]/0.0/0.1

