Circuit: * C:\Users\DELL\OneDrive\Asztali gép\7. felev\Szakdolgozat\Rendszerezett kódok\All_codes\Varicap\varicap_testing.asc

WARNING: Node N006 is floating.

Direct Newton iteration for .op point succeeded.

Date: Fri Nov 10 15:26:13 2023
Total elapsed time: 0.089 seconds.

tnom = 27
temp = 27
method = modified trap
totiter = 2107
traniter = 2104
tranpoints = 1053
accept = 1053
rejected = 0
matrix size = 9
fillins = 5
solver = Normal
Matrix Compiler1:      32 opcodes  0.1/[0.1]/0.1
Matrix Compiler2:      57 opcodes  0.1/[0.1]/0.1

